data_image0
_chemical_formula_structural       Co64Bi64O192
_chemical_formula_sum              "Co64 Bi64 O192"
_cell_length_a       15.086653168042437
_cell_length_b       15.068947683929718
_cell_length_c       19.231039290427486
_cell_angle_alpha    92.04797872133695
_cell_angle_beta     87.92322216460279
_cell_angle_gamma    90.59191399372952

_space_group_name_H-M_alt    "P 1"
_space_group_IT_number       1

loop_
  _space_group_symop_operation_xyz
  'x, y, z'

loop_
  _atom_site_type_symbol
  _atom_site_label
  _atom_site_symmetry_multiplicity
  _atom_site_fract_x
  _atom_site_fract_y
  _atom_site_fract_z
  _atom_site_occupancy
  Co  Co1       1.0  0.12582495419361683  0.12416182961297177  0.14407009762170836  1.0000
  Co  Co2       1.0  0.1258241634264366  0.12416190991156671  0.39407036242241017  1.0000
  Co  Co3       1.0  0.12582448787713008  0.12416159918500898  0.6440706684053068  1.0000
  Co  Co4       1.0  0.12582515199188377  0.12416127775279238  0.8940704972246554  1.0000
  Co  Co5       1.0  0.12582464555169054  0.3741619835118069  0.1440700337358178  1.0000
  Co  Co6       1.0  0.1258247042473988  0.37416159651260783  0.3940702470346631  1.0000
  Co  Co7       1.0  0.12582473259315635  0.3741619842035943  0.6440702324682791  1.0000
  Co  Co8       1.0  0.12582465761617634  0.3741613781630391  0.894070220610175  1.0000
  Co  Co9       1.0  0.12582424636809336  0.6241620114911703  0.14406998709898455  1.0000
  Co  Co10      1.0  0.12582449096092058  0.6241617796875848  0.39407016161996933  1.0000
  Co  Co11      1.0  0.12582465818801938  0.6241619937725876  0.6440704418330815  1.0000
  Co  Co12      1.0  0.12582459359266254  0.6241617462495017  0.8940705365859916  1.0000
  Co  Co13      1.0  0.1258248367929358  0.8741617464586416  0.14407040505644814  1.0000
  Co  Co14      1.0  0.12582407941218768  0.8741620260663834  0.39407013515754424  1.0000
  Co  Co15      1.0  0.12582433166060558  0.8741621983297084  0.644070324176237  1.0000
  Co  Co16      1.0  0.12582498295552136  0.8741615750653065  0.8940705262881483  1.0000
  Co  Co17      1.0  0.3758245987969823  0.12416183840423187  0.14407017343229955  1.0000
  Co  Co18      1.0  0.37582440600082123  0.12416161024101528  0.3940702259343313  1.0000
  Co  Co19      1.0  0.375824393179635  0.12416211942644176  0.6440702161506414  1.0000
  Co  Co20      1.0  0.3758249402977036  0.12416181326605433  0.8940702019427341  1.0000
  Co  Co21      1.0  0.3758245010217566  0.37416203831157824  0.1440699979685922  1.0000
  Co  Co22      1.0  0.37582463300518  0.37416170967467355  0.3940701580099086  1.0000
  Co  Co23      1.0  0.3758245240376629  0.37416246332565767  0.6440702580441412  1.0000
  Co  Co24      1.0  0.37582525045190335  0.37416178204987716  0.8940705882322404  1.0000
  Co  Co25      1.0  0.37582448939495366  0.624162099657786  0.14406989060933828  1.0000
  Co  Co26      1.0  0.37582400471915095  0.624162084659493  0.39406986779273145  1.0000
  Co  Co27      1.0  0.3758246343533831  0.6241620489984079  0.6440706681804068  1.0000
  Co  Co28      1.0  0.3758251852282185  0.6241612731293209  0.8940705628164679  1.0000
  Co  Co29      1.0  0.3758244683808941  0.8741616411117074  0.1440702583634285  1.0000
  Co  Co30      1.0  0.3758240183149292  0.8741616626915625  0.39407026070196693  1.0000
  Co  Co31      1.0  0.37582489261609675  0.8741616408322286  0.6440705968988475  1.0000
  Co  Co32      1.0  0.37582521496034493  0.8741614633222677  0.8940703810936411  1.0000
  Co  Co33      1.0  0.6258239849578585  0.12416202065262011  0.14407018103374683  1.0000
  Co  Co34      1.0  0.6258242638618989  0.12416143375532751  0.3940704333301378  1.0000
  Co  Co35      1.0  0.625824321124993  0.12416233688720467  0.6440701478693653  1.0000
  Co  Co36      1.0  0.6258247631033044  0.12416180122443958  0.8940703498173701  1.0000
  Co  Co37      1.0  0.6258245633415637  0.37416182751806243  0.14407030965383474  1.0000
  Co  Co38      1.0  0.6258243710312092  0.3741618168688475  0.3940702551161656  1.0000
  Co  Co39      1.0  0.6258247745716775  0.3741620767644236  0.6440704745796447  1.0000
  Co  Co40      1.0  0.6258253493805355  0.3741616733730831  0.8940708335594221  1.0000
  Co  Co41      1.0  0.62582503845668  0.6241619820488237  0.14407028875794045  1.0000
  Co  Co42      1.0  0.6258240844698315  0.6241615947151147  0.3940701070493572  1.0000
  Co  Co43      1.0  0.6258250598425917  0.6241614416745112  0.6440704515103164  1.0000
  Co  Co44      1.0  0.6258258859023575  0.6241619307927543  0.8940708517037702  1.0000
  Co  Co45      1.0  0.6258246444920303  0.8741622643896101  0.14407015809153675  1.0000
  Co  Co46      1.0  0.6258242330602548  0.8741616640861665  0.3940703518430708  1.0000
  Co  Co47      1.0  0.6258246821244211  0.874161789424896  0.6440703140407441  1.0000
  Co  Co48      1.0  0.6258252409456989  0.874161295526841  0.8940707597575445  1.0000
  Co  Co49      1.0  0.8758248934469488  0.12416197903983925  0.14407034032229782  1.0000
  Co  Co50      1.0  0.8758245706968252  0.12416178347869089  0.3940703089940884  1.0000
  Co  Co51      1.0  0.875824319175892  0.12416207060795925  0.6440701228906733  1.0000
  Co  Co52      1.0  0.8758247188179971  0.12416131588283766  0.8940703513415136  1.0000
  Co  Co53      1.0  0.8758247820359708  0.37416159275938327  0.14407040303841312  1.0000
  Co  Co54      1.0  0.875824224524488  0.37416182209405446  0.39406989322701036  1.0000
  Co  Co55      1.0  0.8758245070547844  0.37416203429299555  0.644070149100551  1.0000
  Co  Co56      1.0  0.875824840225017  0.37416136227975055  0.8940704414540542  1.0000
  Co  Co57      1.0  0.8758245331126433  0.6241621020906098  0.14407029291279855  1.0000
  Co  Co58      1.0  0.8758243172315204  0.6241617227797547  0.39407010674107557  1.0000
  Co  Co59      1.0  0.8758249201514902  0.6241617519889027  0.6440703252313645  1.0000
  Co  Co60      1.0  0.8758252063422441  0.6241619088043107  0.8940706464234117  1.0000
  Co  Co61      1.0  0.8758248070636305  0.874162323503699  0.1440704714888549  1.0000
  Co  Co62      1.0  0.8758241900290966  0.8741617393845094  0.3940703017217153  1.0000
  Co  Co63      1.0  0.8758243849863965  0.8741619637668053  0.6440702249880925  1.0000
  Co  Co64      1.0  0.8758250459888475  0.8741617759595024  0.8940706974180898  1.0000
  Bi  Bi1       1.0  0.9914268759442053  0.008484002133355322  0.9997373925661774  1.0000
  Bi  Bi2       1.0  0.9914268943834154  0.008484286215283542  0.24973734430853758  1.0000
  La  La3       1.0  0.9914261612543888  0.008484049585950768  0.4997374408254656  1.0000
  Bi  Bi4       1.0  0.9914261358745127  0.008484140868836873  0.7497374890391046  1.0000
  Bi  Bi5       1.0  0.9914267776269258  0.2584834724796097  0.9997371826795186  1.0000
  Bi  Bi6       1.0  0.9914268705687692  0.2584841134211283  0.249737195660892  1.0000
  Bi  Bi7       1.0  0.9914258770287137  0.2584845595475255  0.4997371118930104  1.0000
  La  La8       1.0  0.9914260817065744  0.2584841072079537  0.7497369477249939  1.0000
  Bi  Bi9       1.0  0.9914268027456314  0.5084836176393989  0.9997374617703129  1.0000
  La  La10      1.0  0.9914262312059351  0.5084843234539357  0.2497370639533953  1.0000
  Bi  Bi11      1.0  0.9914263553113226  0.5084840473216534  0.4997370080305104  1.0000
  Bi  Bi12      1.0  0.9914268477318503  0.508484157696966  0.7497374349118338  1.0000
  Bi  Bi13      1.0  0.9914271856706013  0.7584840788674767  0.9997376598810251  1.0000
  Bi  Bi14      1.0  0.9914262532675835  0.7584842645495397  0.249737251167848  1.0000
  Bi  Bi15      1.0  0.9914260117246911  0.7584840566823774  0.49973716167836046  1.0000
  Bi  Bi16      1.0  0.991426305480324  0.7584843272644533  0.7497374450808386  1.0000
  Bi  Bi17      1.0  0.24142717399309538  0.008483584712515665  0.9997372925159941  1.0000
  Bi  Bi18      1.0  0.24142642327857733  0.008484211809064073  0.24973734201310935  1.0000
  Bi  Bi19      1.0  0.24142564191181387  0.008484133782815088  0.4997374480998847  1.0000
  La  La20      1.0  0.24142652357916303  0.00848398667376749  0.7497374653715776  1.0000
  Bi  Bi21      1.0  0.2414268618802229  0.25848397958831615  0.9997371428816227  1.0000
  Bi  Bi22      1.0  0.24142663363549935  0.258484494342756  0.24973709102068864  1.0000
  Bi  Bi23      1.0  0.24142668399724077  0.2584837744768454  0.49973716217956266  1.0000
  Bi  Bi24      1.0  0.24142658978527548  0.25848432657938525  0.7497372692619082  1.0000
  La  La25      1.0  0.24142663931623323  0.5084835808430591  0.9997371652548966  1.0000
  La  La26      1.0  0.24142621269457232  0.5084845649144346  0.24973692906353828  1.0000
  Bi  Bi27      1.0  0.24142637078572887  0.5084839557037992  0.49973721300082624  1.0000
  La  La28      1.0  0.2414263694934749  0.5084844449041196  0.7497376421180235  1.0000
  Bi  Bi29      1.0  0.2414270893251293  0.7584835547624939  0.9997372971628963  1.0000
  Bi  Bi30      1.0  0.24142644079087877  0.7584840470748014  0.24973728678610094  1.0000
  Bi  Bi31      1.0  0.2414258416551732  0.7584843390675162  0.4997372025682862  1.0000
  Bi  Bi32      1.0  0.24142613077118752  0.7584843916808366  0.7497372398017831  1.0000
  Bi  Bi33      1.0  0.49142685439774486  0.008483785176563821  0.9997372113662986  1.0000
  Bi  Bi34      1.0  0.4914261095846018  0.008484042551330073  0.24973730205210656  1.0000
  Bi  Bi35      1.0  0.49142583720167093  0.008483810593149977  0.49973728616635765  1.0000
  La  La36      1.0  0.49142647424474356  0.008484658294361964  0.7497371690718406  1.0000
  Bi  Bi37      1.0  0.4914269558274557  0.2584836030041569  0.9997374331289538  1.0000
  Bi  Bi38      1.0  0.4914260336272145  0.258484343004816  0.24973726681017466  1.0000
  Bi  Bi39      1.0  0.49142646045561905  0.2584839432680519  0.49973719171258885  1.0000
  Bi  Bi40      1.0  0.49142617377186104  0.2584845757438958  0.7497372191022179  1.0000
  Bi  Bi41      1.0  0.4914274132977263  0.5084840429846238  0.9997372542666224  1.0000
  Bi  Bi42      1.0  0.49142625987445415  0.5084845429117533  0.249736744664676  1.0000
  La  La43      1.0  0.4914258786639626  0.5084843786867266  0.4997371005508269  1.0000
  Bi  Bi44      1.0  0.4914265165646337  0.5084842251608217  0.7497374041344638  1.0000
  La  La45      1.0  0.491426739066273  0.7584835528975279  0.9997373646219411  1.0000
  Bi  Bi46      1.0  0.49142643573392814  0.758483944208847  0.24973705848414912  1.0000
  La  La47      1.0  0.4914259536185138  0.7584840272644289  0.4997372712056679  1.0000
  La  La48      1.0  0.49142707573737116  0.7584838296990489  0.7497374612746388  1.0000
  Bi  Bi49      1.0  0.7414264577482544  0.008484032074981883  0.9997374609925103  1.0000
  Bi  Bi50      1.0  0.7414261197442141  0.008484449204405433  0.2497371612728659  1.0000
  Bi  Bi51      1.0  0.7414262059351284  0.008483793183266223  0.499737363499681  1.0000
  Bi  Bi52      1.0  0.7414262307554672  0.008484527650443403  0.7497371516634175  1.0000
  Bi  Bi53      1.0  0.7414269186818437  0.25848355403822315  0.9997377146758771  1.0000
  Bi  Bi54      1.0  0.7414262648159495  0.25848404179338036  0.24973710855690578  1.0000
  La  La55      1.0  0.7414262254027435  0.25848400325082493  0.49973718849605686  1.0000
  Bi  Bi56      1.0  0.7414263364027179  0.25848443403594196  0.7497375077327104  1.0000
  Bi  Bi57      1.0  0.7414275650303769  0.5084838552734435  0.9997377088091516  1.0000
  La  La58      1.0  0.7414265403584945  0.508483927328573  0.2497372377039775  1.0000
  La  La59      1.0  0.7414263969916517  0.5084839891743904  0.49973712287204625  1.0000
  Bi  Bi60      1.0  0.741427086292134  0.5084843474070229  0.7497376698220536  1.0000
  Bi  Bi61      1.0  0.7414273995779731  0.7584842384887008  0.9997378700917544  1.0000
  Bi  Bi62      1.0  0.7414265054814462  0.7584846332623163  0.24973735617636716  1.0000
  Bi  Bi63      1.0  0.7414260181352352  0.7584838722219869  0.49973711595948994  1.0000
  La  La64      1.0  0.7414268108834883  0.7584843010296528  0.7497374752512099  1.0000
  O   O1        1.0  0.12498121317851546  1.350611666153843e-05  0.18046545732034225  1.0000
  O   O2        1.0  0.12498031683242104  1.3678304708213922e-05  0.43046567922730794  1.0000
  O   O3        1.0  0.12498081632583145  1.3587701342803746e-05  0.6804663062067124  1.0000
  O   O4        1.0  0.12498168904713368  1.3198903839979751e-05  0.9304661691269034  1.0000
  O   O5        1.0  0.12498151952170647  0.2500137920901154  0.18046516449590924  1.0000
  O   O6        1.0  0.12498078802996172  0.2500135762321189  0.43046598797706087  1.0000
  O   O7        1.0  0.12498144507619424  0.25001358483381797  0.6804654329632522  1.0000
  O   O8        1.0  0.12498168155248834  0.25001323159857  0.9304653617517477  1.0000
  O   O9        1.0  0.12498054663594924  0.5000136907326368  0.18046543157379935  1.0000
  O   O10       1.0  0.12498126745912973  0.5000133336973217  0.4304654922739653  1.0000
  O   O11       1.0  0.12498102829956366  0.5000136974481918  0.6804658784779738  1.0000
  O   O12       1.0  0.12498060424043178  0.5000131320965056  0.9304658026894842  1.0000
  O   O13       1.0  0.12498099005674933  0.7500137227349774  0.18046545350943335  1.0000
  O   O14       1.0  0.124980607159265  0.7500136561640633  0.43046544973367434  1.0000
  O   O15       1.0  0.12498102780753576  0.7500139225493604  0.6804654922808341  1.0000
  O   O16       1.0  0.1249813088564519  0.750013314366203  0.9304656591070403  1.0000
  O   O17       1.0  0.37498115808035204  1.3437340445713347e-05  0.18046532206237792  1.0000
  O   O18       1.0  0.37498082234365193  1.3314052638725584e-05  0.4304654447524472  1.0000
  O   O19       1.0  0.3749815900727317  1.3570279685520358e-05  0.6804654285532272  1.0000
  O   O20       1.0  0.3749815257523585  1.3192116339502185e-05  0.9304653437180398  1.0000
  O   O21       1.0  0.37498091370759173  0.2500136839000289  0.18046526969263743  1.0000
  O   O22       1.0  0.3749811098564598  0.25001338828392766  0.4304657952758319  1.0000
  O   O23       1.0  0.3749807307906507  0.2500140206989759  0.6804656122113826  1.0000
  O   O24       1.0  0.37498145200096417  0.2500134915711139  0.9304657367338274  1.0000
  O   O25       1.0  0.37498105546504223  0.50001401913258  0.18046503717371523  1.0000
  O   O26       1.0  0.374980888747457  0.5000135933066776  0.43046504192432056  1.0000
  O   O27       1.0  0.3749808728638819  0.500014031792152  0.6804660711461745  1.0000
  O   O28       1.0  0.37498170482107507  0.5000134807040482  0.9304660724809501  1.0000
  O   O29       1.0  0.3749806253737152  0.7500136263451188  0.18046592632256864  1.0000
  O   O30       1.0  0.37498005615532576  0.7500137199268665  0.43046597922801244  1.0000
  O   O31       1.0  0.374981419894422  0.7500136064483535  0.6804663054402437  1.0000
  O   O32       1.0  0.374981497128371  0.7500130224730824  0.9304658455869291  1.0000
  O   O33       1.0  0.6249804036879386  1.3911473197491309e-05  0.18046592959471838  1.0000
  O   O34       1.0  0.6249804993545579  1.3370208155819783e-05  0.43046609804814573  1.0000
  O   O35       1.0  0.6249805652649368  1.3764567555475936e-05  0.6804653496272942  1.0000
  O   O36       1.0  0.624981168520556  1.317253854680549e-05  0.9304656577362355  1.0000
  O   O37       1.0  0.624980749182761  0.25001368762055975  0.1804654986918345  1.0000
  O   O38       1.0  0.6249809241119098  0.2500132541981811  0.43046568666244994  1.0000
  O   O39       1.0  0.6249810095251492  0.2500140791276758  0.6804658197635587  1.0000
  O   O40       1.0  0.6249812944054229  0.2500133984131148  0.9304658337429043  1.0000
  O   O41       1.0  0.6249809570789018  0.500013549980945  0.1804658061136979  1.0000
  O   O42       1.0  0.6249804226398167  0.5000135618749955  0.43046559807155305  1.0000
  O   O43       1.0  0.6249813537597961  0.5000135821796501  0.6804661394822908  1.0000
  O   O44       1.0  0.6249821643940741  0.5000133372970729  0.9304661062577481  1.0000
  O   O45       1.0  0.6249816890295872  0.7500138007600917  0.18046501420599956  1.0000
  O   O46       1.0  0.6249807427915437  0.7500133534139294  0.43046551098335767  1.0000
  O   O47       1.0  0.6249817225883381  0.7500132910277585  0.680465532515159  1.0000
  O   O48       1.0  0.624982180130848  0.750013529717942  0.9304664702670331  1.0000
  O   O49       1.0  0.8749815543670639  1.4043389525792792e-05  0.1804657267621948  1.0000
  O   O50       1.0  0.8749809682051709  1.3490900700555763e-05  0.43046569575025617  1.0000
  O   O51       1.0  0.8749806696055771  1.3884497479780125e-05  0.6804656465116301  1.0000
  O   O52       1.0  0.8749812640592294  1.3564643011103385e-05  0.930466063183721  1.0000
  O   O53       1.0  0.8749810480591594  0.2500134547929333  0.18046606097822512  1.0000
  O   O54       1.0  0.8749806428941003  0.25001364871409426  0.4304654252493521  1.0000
  O   O55       1.0  0.8749810809440591  0.2500136675100961  0.6804655120401706  1.0000
  O   O56       1.0  0.8749811810461595  0.25001288550447587  0.9304659046214604  1.0000
  O   O57       1.0  0.8749812570332246  0.5000135040134895  0.18046532229080117  1.0000
  O   O58       1.0  0.8749809412220984  0.500013511470686  0.43046522968438045  1.0000
  O   O59       1.0  0.8749813413374873  0.5000137031262453  0.6804657277085207  1.0000
  O   O60       1.0  0.8749816069800658  0.5000132887778781  0.9304655160962229  1.0000
  O   O61       1.0  0.874980641787361  0.7500139429173954  0.18046570335593493  1.0000
  O   O62       1.0  0.8749805483835885  0.7500133281938957  0.4304656432434645  1.0000
  O   O63       1.0  0.8749812304864985  0.7500135828701274  0.6804654188540595  1.0000
  O   O64       1.0  0.8749815768563282  0.7500137124256162  0.9304661071387293  1.0000
  O   O65       1.0  0.1327725576075399  0.11733781502065677  0.05256764400085042  1.0000
  O   O66       1.0  0.13277199609874743  0.11733807820721191  0.3025678543942507  1.0000
  O   O67       1.0  0.1327722772319825  0.1173369575832878  0.5525681529583141  1.0000
  O   O68       1.0  0.13277278425258074  0.1173372306912355  0.8025680335109722  1.0000
  O   O69       1.0  0.13277235985669353  0.3673383856184302  0.05256749021805163  1.0000
  O   O70       1.0  0.13277269461723923  0.3673379119850899  0.3025677208011125  1.0000
  O   O71       1.0  0.1327722362795279  0.36733866645377017  0.5525677313740679  1.0000
  O   O72       1.0  0.13277240033490717  0.36733836901090433  0.8025677184155143  1.0000
  O   O73       1.0  0.1327714405329505  0.6173379696222319  0.052567483980383446  1.0000
  O   O74       1.0  0.13277193642131377  0.6173379227835826  0.3025676205844407  1.0000
  O   O75       1.0  0.1327723676681847  0.6173373957636874  0.5525679676601218  1.0000
  O   O76       1.0  0.13277176537245866  0.6173381277995741  0.8025680220572652  1.0000
  O   O77       1.0  0.13277309485270852  0.8673377331431417  0.05256789075305175  1.0000
  O   O78       1.0  0.13277185546485887  0.8673387983575426  0.3025675891203441  1.0000
  O   O79       1.0  0.13277137687807122  0.8673391194888536  0.5525677269722099  1.0000
  O   O80       1.0  0.13277212562033722  0.8673383414316629  0.8025679683140725  1.0000
  O   O81       1.0  0.38277243065170274  0.11733792550003429  0.05256763392008326  1.0000
  O   O82       1.0  0.382772156463412  0.11733818939373888  0.3025676746465207  1.0000
  O   O83       1.0  0.3827716258392114  0.11733843964995937  0.5525677365723498  1.0000
  O   O84       1.0  0.38277240398432943  0.11733868441032025  0.8025676897172985  1.0000
  O   O85       1.0  0.3827721479364524  0.3673380164570735  0.05256755594285023  1.0000
  O   O86       1.0  0.3827720416066518  0.367337728940068  0.30256761639980406  1.0000
  O   O87       1.0  0.38277187739842816  0.3673389624451951  0.5525677295129964  1.0000
  O   O88       1.0  0.3827724824482118  0.3673382658950631  0.8025680467730197  1.0000
  O   O89       1.0  0.382772554764552  0.6173392486158428  0.052567403204073375  1.0000
  O   O90       1.0  0.3827715174013411  0.6173390480712542  0.3025673144280008  1.0000
  O   O91       1.0  0.3827721078627186  0.617338180124246  0.5525681180002229  1.0000
  O   O92       1.0  0.38277278442153323  0.6173379101153439  0.8025680528581074  1.0000
  O   O93       1.0  0.382771831729028  0.8673373100158008  0.05256772296951702  1.0000
  O   O94       1.0  0.3827718418867894  0.8673372157051021  0.3025677338014855  1.0000
  O   O95       1.0  0.38277203323203157  0.8673376114652903  0.5525679874186464  1.0000
  O   O96       1.0  0.38277287185255554  0.8673379871684596  0.802567865754469  1.0000
  O   O97       1.0  0.6327708033359771  0.11733839426206744  0.052567629001545976  1.0000
  O   O98       1.0  0.632771795460702  0.11733761767682095  0.30256790252831517  1.0000
  O   O99       1.0  0.6327717645307661  0.1173385563366859  0.5525676603470127  1.0000
  O   O100      1.0  0.632771952499751  0.11733840320066485  0.802567860071863  1.0000
  O   O101      1.0  0.6327726461872384  0.3673382110360356  0.052567872235736425  1.0000
  O   O102      1.0  0.6327721996027821  0.3673380035357221  0.3025677730272257  1.0000
  O   O103      1.0  0.6327725929051036  0.36733799409050216  0.5525679832895724  1.0000
  O   O104      1.0  0.6327731903461145  0.3673378877068688  0.8025683094180239  1.0000
  O   O105      1.0  0.6327730214828137  0.6173378119561236  0.05256788769677993  1.0000
  O   O106      1.0  0.632771680783045  0.6173379521006394  0.3025675944485146  1.0000
  O   O107      1.0  0.6327724267774583  0.617337384682814  0.5525678889758521  1.0000
  O   O108      1.0  0.6327734754916294  0.6173386521691939  0.8025683518278586  1.0000
  O   O109      1.0  0.6327727296255233  0.8673392515750631  0.052567712563479564  1.0000
  O   O110      1.0  0.632772282515395  0.8673383842011192  0.30256784642905526  1.0000
  O   O111      1.0  0.6327720299684263  0.8673378275436706  0.5525677091250757  1.0000
  O   O112      1.0  0.6327732320283745  0.8673369916013846  0.8025683019029479  1.0000
  O   O113      1.0  0.8827725711641743  0.11733876007826881  0.05256780584787692  1.0000
  O   O114      1.0  0.8827727995694834  0.11733805429485668  0.3025678508219288  1.0000
  O   O115      1.0  0.8827718967463473  0.1173385112235692  0.5525676965086447  1.0000
  O   O116      1.0  0.8827718473169013  0.11733806385337489  0.8025677851276978  1.0000
  O   O117      1.0  0.8827722789837618  0.36733727022818546  0.05256789588374324  1.0000
  O   O118      1.0  0.8827717771674726  0.36733825242677254  0.3025674449519414  1.0000
  O   O119      1.0  0.8827716848022292  0.3673387346949605  0.5525676250245662  1.0000
  O   O120      1.0  0.8827718721584588  0.3673375249588737  0.8025679166225052  1.0000
  O   O121      1.0  0.8827723723919487  0.6173382834348194  0.05256779915479138  1.0000
  O   O122      1.0  0.8827720551237394  0.6173383999116807  0.3025675761425867  1.0000
  O   O123      1.0  0.8827725428876889  0.6173377337484921  0.5525678094093914  1.0000
  O   O124      1.0  0.8827726414448974  0.6173385361940951  0.8025680811403885  1.0000
  O   O125      1.0  0.882772602147114  0.8673384020287992  0.05256797412718415  1.0000
  O   O126      1.0  0.8827717901118259  0.8673379491270936  0.30256780723859966  1.0000
  O   O127      1.0  0.8827717705689108  0.8673382747573878  0.5525677262517116  1.0000
  O   O128      1.0  0.8827721108768861  0.8673378738596186  0.8025681099730452  1.0000
  O   O129      1.0  0.9999959457932198  0.1250027079423902  0.18028493214802727  1.0000
  O   O130      1.0  0.9999951210603469  0.12500269278646584  0.43028525166591397  1.0000
  O   O131      1.0  0.999995285630541  0.12500261193865891  0.6802850035102844  1.0000
  O   O132      1.0  0.9999960242891152  0.12500199272652193  0.9302847520120244  1.0000
  O   O133      1.0  0.9999956957856446  0.3750022542421278  0.1802848153338071  1.0000
  O   O134      1.0  0.999995327490223  0.3750022962592097  0.43028439366923543  1.0000
  O   O135      1.0  0.9999956185793479  0.3750024205644447  0.6802846438630947  1.0000
  O   O136      1.0  0.9999955622304384  0.3750016229859014  0.9302848537675901  1.0000
  O   O137      1.0  0.9999952495698806  0.6250028777488816  0.18028489450607188  1.0000
  O   O138      1.0  0.9999953991384198  0.6250023778326949  0.43028474361966024  1.0000
  O   O139      1.0  0.9999956790474503  0.6250025220064255  0.6802851918146642  1.0000
  O   O140      1.0  0.9999958246162842  0.625002371038286  0.9302854222833064  1.0000
  O   O141      1.0  0.9999956078824168  0.8750024918634978  0.18028475261767274  1.0000
  O   O142      1.0  0.9999950881737947  0.8750023379025564  0.4302847248790567  1.0000
  O   O143      1.0  0.9999951980259119  0.875002899797336  0.6802849405202661  1.0000
  O   O144      1.0  0.9999958627680392  0.875002488553799  0.9302852976349442  1.0000
  O   O145      1.0  0.24999564198499158  0.12500233841473077  0.18028480530004626  1.0000
  O   O146      1.0  0.2499951738938409  0.12500237621977134  0.43028476786144776  1.0000
  O   O147      1.0  0.24999559012126607  0.1250021635363453  0.6802850789545942  1.0000
  O   O148      1.0  0.2499959779620339  0.1250019959257399  0.9302850263028171  1.0000
  O   O149      1.0  0.24999549476883703  0.37500281882276215  0.18028473996342742  1.0000
  O   O150      1.0  0.24999564294838209  0.3750019832340994  0.43028483606678036  1.0000
  O   O151      1.0  0.24999541888497084  0.3750028669162773  0.6802850868379071  1.0000
  O   O152      1.0  0.24999592134360712  0.3750025133222716  0.9302847168577955  1.0000
  O   O153      1.0  0.24999519625968158  0.6250024916068246  0.18028430684519037  1.0000
  O   O154      1.0  0.24999509599634753  0.6250025358575269  0.43028491279719977  1.0000
  O   O155      1.0  0.24999548574672145  0.6250029163222913  0.6802852774833249  1.0000
  O   O156      1.0  0.24999560739909069  0.6250016224691045  0.9302845295994091  1.0000
  O   O157      1.0  0.24999559530747148  0.8750024948420209  0.18028508663247575  1.0000
  O   O158      1.0  0.2499948609825227  0.8750026010934185  0.4302848331837458  1.0000
  O   O159      1.0  0.2499955721122056  0.875002607825954  0.6802847814152226  1.0000
  O   O160      1.0  0.24999621443522016  0.8750018094684431  0.9302849007996465  1.0000
  O   O161      1.0  0.4999951081076695  0.12500266420023073  0.18028509903707043  1.0000
  O   O162      1.0  0.49999525092880753  0.12500228548609116  0.43028494789149485  1.0000
  O   O163      1.0  0.4999952590543941  0.12500317841697084  0.680284895300875  1.0000
  O   O164      1.0  0.4999957594017773  0.1250022196490703  0.9302849146230843  1.0000
  O   O165      1.0  0.49999531329969454  0.37500271168060545  0.1802847199893031  1.0000
  O   O166      1.0  0.4999953512328558  0.37500229320868617  0.4302848445689185  1.0000
  O   O167      1.0  0.4999954808535641  0.3750029557552655  0.6802847782637528  1.0000
  O   O168      1.0  0.49999614461862457  0.37500234257635945  0.9302851339961786  1.0000
  O   O169      1.0  0.49999570090050993  0.6250028469222824  0.180284413077714  1.0000
  O   O170      1.0  0.4999949570009197  0.6250028337743444  0.4302845111209721  1.0000
  O   O171      1.0  0.4999958751507974  0.6250024309381461  0.6802850001855736  1.0000
  O   O172      1.0  0.4999965916562102  0.6250021988724588  0.9302850106069563  1.0000
  O   O173      1.0  0.49999540487609123  0.8750020015532817  0.18028467528649125  1.0000
  O   O174      1.0  0.49999497586503894  0.875002096029751  0.43028482702912974  1.0000
  O   O175      1.0  0.49999589473626027  0.8750021619893713  0.6802851566306646  1.0000
  O   O176      1.0  0.4999959118593116  0.8750017550268626  0.9302848459501455  1.0000
  O   O177      1.0  0.749995317455514  0.12500240401476329  0.18028430663161646  1.0000
  O   O178      1.0  0.7499953466368428  0.1250020680029017  0.4302847238850606  1.0000
  O   O179      1.0  0.7499951650504975  0.12500259531951743  0.680284723071123  1.0000
  O   O180      1.0  0.7499955135126641  0.1250021400763204  0.9302847762261524  1.0000
  O   O181      1.0  0.7499955623582722  0.37500237875626813  0.18028486021432  1.0000
  O   O182      1.0  0.7499950966732647  0.375002359433216  0.43028463543137674  1.0000
  O   O183      1.0  0.7499956265011612  0.3750026713026565  0.6802850632783379  1.0000
  O   O184      1.0  0.7499961372538384  0.37500183654332003  0.930285549379499  1.0000
  O   O185      1.0  0.7499956109159249  0.6250022035999857  0.18028499474397613  1.0000
  O   O186      1.0  0.7499952381735163  0.625002042138194  0.43028461247977695  1.0000
  O   O187      1.0  0.7499960710608947  0.6250020763058196  0.6802850206508887  1.0000
  O   O188      1.0  0.7499965126597935  0.6250024697955556  0.930285613981687  1.0000
  O   O189      1.0  0.749995579541732  0.8750033699818826  0.18028503861024042  1.0000
  O   O190      1.0  0.7499951403840112  0.8750023139715873  0.4302849536033291  1.0000
  O   O191      1.0  0.7499954390279057  0.8750026043626127  0.6802850031814547  1.0000
  O   O192      1.0  0.7499961217892406  0.8750025949142547  0.9302856005546666  1.0000
