
#======================================================================
# CRYSTAL DATA
#----------------------------------------------------------------------
data_VESTA_phase_1

_chemical_name_common                  'Co1 Bi1 O3'
_cell_length_a                         14.897776
_cell_length_b                         14.897776
_cell_length_c                         16.083328
_cell_angle_alpha                      90.000000
_cell_angle_beta                       90.000000
_cell_angle_gamma                      90.000000
_cell_volume                           3569.593690
_space_group_name_H-M_alt              'P 1'
_space_group_IT_number                 1

loop_
_space_group_symop_operation_xyz
   'x, y, z'

loop_
   _atom_site_label
   _atom_site_occupancy
   _atom_site_fract_x
   _atom_site_fract_y
   _atom_site_fract_z
   _atom_site_adp_type
   _atom_site_U_iso_or_equiv
   _atom_site_type_symbol
   Co0        1.0     0.125000     0.125000     0.155702    Uiso  ? Co
   Co0        1.0     0.125000     0.125000     0.655702    Uiso  ? Co
   Co0        1.0     0.125000     0.625000     0.155702    Uiso  ? Co
   Co0        1.0     0.125000     0.625000     0.655702    Uiso  ? Co
   Co0        1.0     0.625000     0.125000     0.155702    Uiso  ? Co
   Co0        1.0     0.625000     0.125000     0.655702    Uiso  ? Co
   Co0        1.0     0.625000     0.625000     0.155702    Uiso  ? Co
   Co0        1.0     0.625000     0.625000     0.655702    Uiso  ? Co
   Co0        1.0     0.125000     0.125000     0.405702    Uiso  ? Co
   Co0        1.0     0.125000     0.125000     0.905702    Uiso  ? Co
   Co0        1.0     0.125000     0.625000     0.405702    Uiso  ? Co
   Co0        1.0     0.125000     0.625000     0.905702    Uiso  ? Co
   Co0        1.0     0.625000     0.125000     0.405702    Uiso  ? Co
   Co0        1.0     0.625000     0.125000     0.905702    Uiso  ? Co
   Co0        1.0     0.625000     0.625000     0.405702    Uiso  ? Co
   Co0        1.0     0.625000     0.625000     0.905702    Uiso  ? Co
   Co0        1.0     0.125000     0.375000     0.155702    Uiso  ? Co
   Co0        1.0     0.125000     0.375000     0.655702    Uiso  ? Co
   Co0        1.0     0.125000     0.875000     0.155702    Uiso  ? Co
   Co0        1.0     0.125000     0.875000     0.655702    Uiso  ? Co
   Co0        1.0     0.625000     0.375000     0.155702    Uiso  ? Co
   Co0        1.0     0.625000     0.375000     0.655702    Uiso  ? Co
   Co0        1.0     0.625000     0.875000     0.155702    Uiso  ? Co
   Co0        1.0     0.625000     0.875000     0.655702    Uiso  ? Co
   Co0        1.0     0.125000     0.375000     0.405702    Uiso  ? Co
   Co0        1.0     0.125000     0.375000     0.905702    Uiso  ? Co
   Co0        1.0     0.125000     0.875000     0.405702    Uiso  ? Co
   Co0        1.0     0.125000     0.875000     0.905702    Uiso  ? Co
   Co0        1.0     0.625000     0.375000     0.405702    Uiso  ? Co
   Co0        1.0     0.625000     0.375000     0.905702    Uiso  ? Co
   Co0        1.0     0.625000     0.875000     0.405702    Uiso  ? Co
   Co0        1.0     0.625000     0.875000     0.905702    Uiso  ? Co
   Co0        1.0     0.375000     0.125000     0.155702    Uiso  ? Co
   Co0        1.0     0.375000     0.125000     0.655702    Uiso  ? Co
   Co0        1.0     0.375000     0.625000     0.155702    Uiso  ? Co
   Co0        1.0     0.375000     0.625000     0.655702    Uiso  ? Co
   Co0        1.0     0.875000     0.125000     0.155702    Uiso  ? Co
   Co0        1.0     0.875000     0.125000     0.655702    Uiso  ? Co
   Co0        1.0     0.875000     0.625000     0.155702    Uiso  ? Co
   Co0        1.0     0.875000     0.625000     0.655702    Uiso  ? Co
   Co0        1.0     0.375000     0.125000     0.405702    Uiso  ? Co
   Co0        1.0     0.375000     0.125000     0.905702    Uiso  ? Co
   Co0        1.0     0.375000     0.625000     0.405702    Uiso  ? Co
   Co0        1.0     0.375000     0.625000     0.905702    Uiso  ? Co
   Co0        1.0     0.875000     0.125000     0.405702    Uiso  ? Co
   Co0        1.0     0.875000     0.125000     0.905702    Uiso  ? Co
   Co0        1.0     0.875000     0.625000     0.405702    Uiso  ? Co
   Co0        1.0     0.875000     0.625000     0.905702    Uiso  ? Co
   Co0        1.0     0.375000     0.375000     0.155702    Uiso  ? Co
   Co0        1.0     0.375000     0.375000     0.655702    Uiso  ? Co
   Co0        1.0     0.375000     0.875000     0.155702    Uiso  ? Co
   Co0        1.0     0.375000     0.875000     0.655702    Uiso  ? Co
   Co0        1.0     0.875000     0.375000     0.155702    Uiso  ? Co
   Co0        1.0     0.875000     0.375000     0.655702    Uiso  ? Co
   Co0        1.0     0.875000     0.875000     0.155702    Uiso  ? Co
   Co0        1.0     0.875000     0.875000     0.655702    Uiso  ? Co
   Co0        1.0     0.375000     0.375000     0.405702    Uiso  ? Co
   Co0        1.0     0.375000     0.375000     0.905702    Uiso  ? Co
   Co0        1.0     0.375000     0.875000     0.405702    Uiso  ? Co
   Co0        1.0     0.375000     0.875000     0.905702    Uiso  ? Co
   Co0        1.0     0.875000     0.375000     0.405702    Uiso  ? Co
   Co0        1.0     0.875000     0.375000     0.905702    Uiso  ? Co
   Co0        1.0     0.875000     0.875000     0.405702    Uiso  ? Co
   Co0        1.0     0.875000     0.875000     0.905702    Uiso  ? Co
   Bi1        1.0     0.000000     0.000000     0.012739    Uiso  ? Bi
   Bi1        1.0     0.000000     0.000000     0.512739    Uiso  ? Bi
   Bi1        1.0     0.000000     0.500000     0.012739    Uiso  ? Bi
   Bi1        1.0     0.000000     0.500000     0.512739    Uiso  ? Bi
   Bi1        1.0     0.500000     0.000000     0.012739    Uiso  ? Bi
   Bi1        1.0     0.500000     0.000000     0.512739    Uiso  ? Bi
   Bi1        1.0     0.500000     0.500000     0.012739    Uiso  ? Bi
   Bi1        1.0     0.500000     0.500000     0.512739    Uiso  ? Bi
   Bi1        1.0     0.000000     0.000000     0.262739    Uiso  ? Bi
   Bi1        1.0     0.000000     0.000000     0.762739    Uiso  ? Bi
   Bi1        1.0     0.000000     0.500000     0.262739    Uiso  ? Bi
   Bi1        1.0     0.000000     0.500000     0.762739    Uiso  ? Bi
   Bi1        1.0     0.500000     0.000000     0.262739    Uiso  ? Bi
   Bi1        1.0     0.500000     0.000000     0.762739    Uiso  ? Bi
   Bi1        1.0     0.500000     0.500000     0.262739    Uiso  ? Bi
   Bi1        1.0     0.500000     0.500000     0.762739    Uiso  ? Bi
   Bi1        1.0     0.000000     0.250000     0.012739    Uiso  ? Bi
   Bi1        1.0     0.000000     0.250000     0.512739    Uiso  ? Bi
   Bi1        1.0     0.000000     0.750000     0.012739    Uiso  ? Bi
   Bi1        1.0     0.000000     0.750000     0.512739    Uiso  ? Bi
   Bi1        1.0     0.500000     0.250000     0.012739    Uiso  ? Bi
   Bi1        1.0     0.500000     0.250000     0.512739    Uiso  ? Bi
   Bi1        1.0     0.500000     0.750000     0.012739    Uiso  ? Bi
   Bi1        1.0     0.500000     0.750000     0.512739    Uiso  ? Bi
   Bi1        1.0     0.000000     0.250000     0.262739    Uiso  ? Bi
   Bi1        1.0     0.000000     0.250000     0.762739    Uiso  ? Bi
   Bi1        1.0     0.000000     0.750000     0.262739    Uiso  ? Bi
   Bi1        1.0     0.000000     0.750000     0.762739    Uiso  ? Bi
   Bi1        1.0     0.500000     0.250000     0.262739    Uiso  ? Bi
   Bi1        1.0     0.500000     0.250000     0.762739    Uiso  ? Bi
   Bi1        1.0     0.500000     0.750000     0.262739    Uiso  ? Bi
   Bi1        1.0     0.500000     0.750000     0.762739    Uiso  ? Bi
   Bi1        1.0     0.250000     0.000000     0.012739    Uiso  ? Bi
   Bi1        1.0     0.250000     0.000000     0.512739    Uiso  ? Bi
   Bi1        1.0     0.250000     0.500000     0.012739    Uiso  ? Bi
   Bi1        1.0     0.250000     0.500000     0.512739    Uiso  ? Bi
   Bi1        1.0     0.750000     0.000000     0.012739    Uiso  ? Bi
   Bi1        1.0     0.750000     0.000000     0.512739    Uiso  ? Bi
   Bi1        1.0     0.750000     0.500000     0.012739    Uiso  ? Bi
   Bi1        1.0     0.750000     0.500000     0.512739    Uiso  ? Bi
   Bi1        1.0     0.250000     0.000000     0.262739    Uiso  ? Bi
   Bi1        1.0     0.250000     0.000000     0.762739    Uiso  ? Bi
   Bi1        1.0     0.250000     0.500000     0.262739    Uiso  ? Bi
   Bi1        1.0     0.250000     0.500000     0.762739    Uiso  ? Bi
   Bi1        1.0     0.750000     0.000000     0.262739    Uiso  ? Bi
   Bi1        1.0     0.750000     0.000000     0.762739    Uiso  ? Bi
   Bi1        1.0     0.750000     0.500000     0.262739    Uiso  ? Bi
   Bi1        1.0     0.750000     0.500000     0.762739    Uiso  ? Bi
   Bi1        1.0     0.250000     0.250000     0.012739    Uiso  ? Bi
   Bi1        1.0     0.250000     0.250000     0.512739    Uiso  ? Bi
   Bi1        1.0     0.250000     0.750000     0.012739    Uiso  ? Bi
   Bi1        1.0     0.250000     0.750000     0.512739    Uiso  ? Bi
   Bi1        1.0     0.750000     0.250000     0.012739    Uiso  ? Bi
   Bi1        1.0     0.750000     0.250000     0.512739    Uiso  ? Bi
   Bi1        1.0     0.750000     0.750000     0.012739    Uiso  ? Bi
   Bi1        1.0     0.750000     0.750000     0.512739    Uiso  ? Bi
   Bi1        1.0     0.250000     0.250000     0.262739    Uiso  ? Bi
   Bi1        1.0     0.250000     0.250000     0.762739    Uiso  ? Bi
   Bi1        1.0     0.250000     0.750000     0.262739    Uiso  ? Bi
   Bi1        1.0     0.250000     0.750000     0.762739    Uiso  ? Bi
   Bi1        1.0     0.750000     0.250000     0.262739    Uiso  ? Bi
   Bi1        1.0     0.750000     0.250000     0.762739    Uiso  ? Bi
   Bi1        1.0     0.750000     0.750000     0.262739    Uiso  ? Bi
   Bi1        1.0     0.750000     0.750000     0.762739    Uiso  ? Bi
   O2         1.0     0.125000     0.000000     0.174021    Uiso  ? O
   O2         1.0     0.125000     0.000000     0.674021    Uiso  ? O
   O2         1.0     0.125000     0.500000     0.174021    Uiso  ? O
   O2         1.0     0.125000     0.500000     0.674021    Uiso  ? O
   O2         1.0     0.625000     0.000000     0.174021    Uiso  ? O
   O2         1.0     0.625000     0.000000     0.674021    Uiso  ? O
   O2         1.0     0.625000     0.500000     0.174021    Uiso  ? O
   O2         1.0     0.625000     0.500000     0.674021    Uiso  ? O
   O2         1.0     0.125000     0.000000     0.424021    Uiso  ? O
   O2         1.0     0.125000     0.000000     0.924021    Uiso  ? O
   O2         1.0     0.125000     0.500000     0.424021    Uiso  ? O
   O2         1.0     0.125000     0.500000     0.924021    Uiso  ? O
   O2         1.0     0.625000     0.000000     0.424021    Uiso  ? O
   O2         1.0     0.625000     0.000000     0.924021    Uiso  ? O
   O2         1.0     0.625000     0.500000     0.424021    Uiso  ? O
   O2         1.0     0.625000     0.500000     0.924021    Uiso  ? O
   O2         1.0     0.125000     0.250000     0.174021    Uiso  ? O
   O2         1.0     0.125000     0.250000     0.674021    Uiso  ? O
   O2         1.0     0.125000     0.750000     0.174021    Uiso  ? O
   O2         1.0     0.125000     0.750000     0.674021    Uiso  ? O
   O2         1.0     0.625000     0.250000     0.174021    Uiso  ? O
   O2         1.0     0.625000     0.250000     0.674021    Uiso  ? O
   O2         1.0     0.625000     0.750000     0.174021    Uiso  ? O
   O2         1.0     0.625000     0.750000     0.674021    Uiso  ? O
   O2         1.0     0.125000     0.250000     0.424021    Uiso  ? O
   O2         1.0     0.125000     0.250000     0.924021    Uiso  ? O
   O2         1.0     0.125000     0.750000     0.424021    Uiso  ? O
   O2         1.0     0.125000     0.750000     0.924021    Uiso  ? O
   O2         1.0     0.625000     0.250000     0.424021    Uiso  ? O
   O2         1.0     0.625000     0.250000     0.924021    Uiso  ? O
   O2         1.0     0.625000     0.750000     0.424021    Uiso  ? O
   O2         1.0     0.625000     0.750000     0.924021    Uiso  ? O
   O2         1.0     0.375000     0.000000     0.174021    Uiso  ? O
   O2         1.0     0.375000     0.000000     0.674021    Uiso  ? O
   O2         1.0     0.375000     0.500000     0.174021    Uiso  ? O
   O2         1.0     0.375000     0.500000     0.674021    Uiso  ? O
   O2         1.0     0.875000     0.000000     0.174021    Uiso  ? O
   O2         1.0     0.875000     0.000000     0.674021    Uiso  ? O
   O2         1.0     0.875000     0.500000     0.174021    Uiso  ? O
   O2         1.0     0.875000     0.500000     0.674021    Uiso  ? O
   O2         1.0     0.375000     0.000000     0.424021    Uiso  ? O
   O2         1.0     0.375000     0.000000     0.924021    Uiso  ? O
   O2         1.0     0.375000     0.500000     0.424021    Uiso  ? O
   O2         1.0     0.375000     0.500000     0.924021    Uiso  ? O
   O2         1.0     0.875000     0.000000     0.424021    Uiso  ? O
   O2         1.0     0.875000     0.000000     0.924021    Uiso  ? O
   O2         1.0     0.875000     0.500000     0.424021    Uiso  ? O
   O2         1.0     0.875000     0.500000     0.924021    Uiso  ? O
   O2         1.0     0.375000     0.250000     0.174021    Uiso  ? O
   O2         1.0     0.375000     0.250000     0.674021    Uiso  ? O
   O2         1.0     0.375000     0.750000     0.174021    Uiso  ? O
   O2         1.0     0.375000     0.750000     0.674021    Uiso  ? O
   O2         1.0     0.875000     0.250000     0.174021    Uiso  ? O
   O2         1.0     0.875000     0.250000     0.674021    Uiso  ? O
   O2         1.0     0.875000     0.750000     0.174021    Uiso  ? O
   O2         1.0     0.875000     0.750000     0.674021    Uiso  ? O
   O2         1.0     0.375000     0.250000     0.424021    Uiso  ? O
   O2         1.0     0.375000     0.250000     0.924021    Uiso  ? O
   O2         1.0     0.375000     0.750000     0.424021    Uiso  ? O
   O2         1.0     0.375000     0.750000     0.924021    Uiso  ? O
   O2         1.0     0.875000     0.250000     0.424021    Uiso  ? O
   O2         1.0     0.875000     0.250000     0.924021    Uiso  ? O
   O2         1.0     0.875000     0.750000     0.424021    Uiso  ? O
   O2         1.0     0.875000     0.750000     0.924021    Uiso  ? O
   O3         1.0     0.125000     0.125000     0.040643    Uiso  ? O
   O3         1.0     0.125000     0.125000     0.540643    Uiso  ? O
   O3         1.0     0.125000     0.625000     0.040643    Uiso  ? O
   O3         1.0     0.125000     0.625000     0.540643    Uiso  ? O
   O3         1.0     0.625000     0.125000     0.040643    Uiso  ? O
   O3         1.0     0.625000     0.125000     0.540643    Uiso  ? O
   O3         1.0     0.625000     0.625000     0.040643    Uiso  ? O
   O3         1.0     0.625000     0.625000     0.540643    Uiso  ? O
   O3         1.0     0.125000     0.125000     0.290643    Uiso  ? O
   O3         1.0     0.125000     0.125000     0.790643    Uiso  ? O
   O3         1.0     0.125000     0.625000     0.290643    Uiso  ? O
   O3         1.0     0.125000     0.625000     0.790643    Uiso  ? O
   O3         1.0     0.625000     0.125000     0.290643    Uiso  ? O
   O3         1.0     0.625000     0.125000     0.790643    Uiso  ? O
   O3         1.0     0.625000     0.625000     0.290643    Uiso  ? O
   O3         1.0     0.625000     0.625000     0.790643    Uiso  ? O
   O3         1.0     0.125000     0.375000     0.040643    Uiso  ? O
   O3         1.0     0.125000     0.375000     0.540643    Uiso  ? O
   O3         1.0     0.125000     0.875000     0.040643    Uiso  ? O
   O3         1.0     0.125000     0.875000     0.540643    Uiso  ? O
   O3         1.0     0.625000     0.375000     0.040643    Uiso  ? O
   O3         1.0     0.625000     0.375000     0.540643    Uiso  ? O
   O3         1.0     0.625000     0.875000     0.040643    Uiso  ? O
   O3         1.0     0.625000     0.875000     0.540643    Uiso  ? O
   O3         1.0     0.125000     0.375000     0.290643    Uiso  ? O
   O3         1.0     0.125000     0.375000     0.790643    Uiso  ? O
   O3         1.0     0.125000     0.875000     0.290643    Uiso  ? O
   O3         1.0     0.125000     0.875000     0.790643    Uiso  ? O
   O3         1.0     0.625000     0.375000     0.290643    Uiso  ? O
   O3         1.0     0.625000     0.375000     0.790643    Uiso  ? O
   O3         1.0     0.625000     0.875000     0.290643    Uiso  ? O
   O3         1.0     0.625000     0.875000     0.790643    Uiso  ? O
   O3         1.0     0.375000     0.125000     0.040643    Uiso  ? O
   O3         1.0     0.375000     0.125000     0.540643    Uiso  ? O
   O3         1.0     0.375000     0.625000     0.040643    Uiso  ? O
   O3         1.0     0.375000     0.625000     0.540643    Uiso  ? O
   O3         1.0     0.875000     0.125000     0.040643    Uiso  ? O
   O3         1.0     0.875000     0.125000     0.540643    Uiso  ? O
   O3         1.0     0.875000     0.625000     0.040643    Uiso  ? O
   O3         1.0     0.875000     0.625000     0.540643    Uiso  ? O
   O3         1.0     0.375000     0.125000     0.290643    Uiso  ? O
   O3         1.0     0.375000     0.125000     0.790643    Uiso  ? O
   O3         1.0     0.375000     0.625000     0.290643    Uiso  ? O
   O3         1.0     0.375000     0.625000     0.790643    Uiso  ? O
   O3         1.0     0.875000     0.125000     0.290643    Uiso  ? O
   O3         1.0     0.875000     0.125000     0.790643    Uiso  ? O
   O3         1.0     0.875000     0.625000     0.290643    Uiso  ? O
   O3         1.0     0.875000     0.625000     0.790643    Uiso  ? O
   O3         1.0     0.375000     0.375000     0.040643    Uiso  ? O
   O3         1.0     0.375000     0.375000     0.540643    Uiso  ? O
   O3         1.0     0.375000     0.875000     0.040643    Uiso  ? O
   O3         1.0     0.375000     0.875000     0.540643    Uiso  ? O
   O3         1.0     0.875000     0.375000     0.040643    Uiso  ? O
   O3         1.0     0.875000     0.375000     0.540643    Uiso  ? O
   O3         1.0     0.875000     0.875000     0.040643    Uiso  ? O
   O3         1.0     0.875000     0.875000     0.540643    Uiso  ? O
   O3         1.0     0.375000     0.375000     0.290643    Uiso  ? O
   O3         1.0     0.375000     0.375000     0.790643    Uiso  ? O
   O3         1.0     0.375000     0.875000     0.290643    Uiso  ? O
   O3         1.0     0.375000     0.875000     0.790643    Uiso  ? O
   O3         1.0     0.875000     0.375000     0.290643    Uiso  ? O
   O3         1.0     0.875000     0.375000     0.790643    Uiso  ? O
   O3         1.0     0.875000     0.875000     0.290643    Uiso  ? O
   O3         1.0     0.875000     0.875000     0.790643    Uiso  ? O
   O4         1.0     0.000000     0.125000     0.174021    Uiso  ? O
   O4         1.0     0.000000     0.125000     0.674021    Uiso  ? O
   O4         1.0     0.000000     0.625000     0.174021    Uiso  ? O
   O4         1.0     0.000000     0.625000     0.674021    Uiso  ? O
   O4         1.0     0.500000     0.125000     0.174021    Uiso  ? O
   O4         1.0     0.500000     0.125000     0.674021    Uiso  ? O
   O4         1.0     0.500000     0.625000     0.174021    Uiso  ? O
   O4         1.0     0.500000     0.625000     0.674021    Uiso  ? O
   O4         1.0     0.000000     0.125000     0.424021    Uiso  ? O
   O4         1.0     0.000000     0.125000     0.924021    Uiso  ? O
   O4         1.0     0.000000     0.625000     0.424021    Uiso  ? O
   O4         1.0     0.000000     0.625000     0.924021    Uiso  ? O
   O4         1.0     0.500000     0.125000     0.424021    Uiso  ? O
   O4         1.0     0.500000     0.125000     0.924021    Uiso  ? O
   O4         1.0     0.500000     0.625000     0.424021    Uiso  ? O
   O4         1.0     0.500000     0.625000     0.924021    Uiso  ? O
   O4         1.0     0.000000     0.375000     0.174021    Uiso  ? O
   O4         1.0     0.000000     0.375000     0.674021    Uiso  ? O
   O4         1.0     0.000000     0.875000     0.174021    Uiso  ? O
   O4         1.0     0.000000     0.875000     0.674021    Uiso  ? O
   O4         1.0     0.500000     0.375000     0.174021    Uiso  ? O
   O4         1.0     0.500000     0.375000     0.674021    Uiso  ? O
   O4         1.0     0.500000     0.875000     0.174021    Uiso  ? O
   O4         1.0     0.500000     0.875000     0.674021    Uiso  ? O
   O4         1.0     0.000000     0.375000     0.424021    Uiso  ? O
   O4         1.0     0.000000     0.375000     0.924021    Uiso  ? O
   O4         1.0     0.000000     0.875000     0.424021    Uiso  ? O
   O4         1.0     0.000000     0.875000     0.924021    Uiso  ? O
   O4         1.0     0.500000     0.375000     0.424021    Uiso  ? O
   O4         1.0     0.500000     0.375000     0.924021    Uiso  ? O
   O4         1.0     0.500000     0.875000     0.424021    Uiso  ? O
   O4         1.0     0.500000     0.875000     0.924021    Uiso  ? O
   O4         1.0     0.250000     0.125000     0.174021    Uiso  ? O
   O4         1.0     0.250000     0.125000     0.674021    Uiso  ? O
   O4         1.0     0.250000     0.625000     0.174021    Uiso  ? O
   O4         1.0     0.250000     0.625000     0.674021    Uiso  ? O
   O4         1.0     0.750000     0.125000     0.174021    Uiso  ? O
   O4         1.0     0.750000     0.125000     0.674021    Uiso  ? O
   O4         1.0     0.750000     0.625000     0.174021    Uiso  ? O
   O4         1.0     0.750000     0.625000     0.674021    Uiso  ? O
   O4         1.0     0.250000     0.125000     0.424021    Uiso  ? O
   O4         1.0     0.250000     0.125000     0.924021    Uiso  ? O
   O4         1.0     0.250000     0.625000     0.424021    Uiso  ? O
   O4         1.0     0.250000     0.625000     0.924021    Uiso  ? O
   O4         1.0     0.750000     0.125000     0.424021    Uiso  ? O
   O4         1.0     0.750000     0.125000     0.924021    Uiso  ? O
   O4         1.0     0.750000     0.625000     0.424021    Uiso  ? O
   O4         1.0     0.750000     0.625000     0.924021    Uiso  ? O
   O4         1.0     0.250000     0.375000     0.174021    Uiso  ? O
   O4         1.0     0.250000     0.375000     0.674021    Uiso  ? O
   O4         1.0     0.250000     0.875000     0.174021    Uiso  ? O
   O4         1.0     0.250000     0.875000     0.674021    Uiso  ? O
   O4         1.0     0.750000     0.375000     0.174021    Uiso  ? O
   O4         1.0     0.750000     0.375000     0.674021    Uiso  ? O
   O4         1.0     0.750000     0.875000     0.174021    Uiso  ? O
   O4         1.0     0.750000     0.875000     0.674021    Uiso  ? O
   O4         1.0     0.250000     0.375000     0.424021    Uiso  ? O
   O4         1.0     0.250000     0.375000     0.924021    Uiso  ? O
   O4         1.0     0.250000     0.875000     0.424021    Uiso  ? O
   O4         1.0     0.250000     0.875000     0.924021    Uiso  ? O
   O4         1.0     0.750000     0.375000     0.424021    Uiso  ? O
   O4         1.0     0.750000     0.375000     0.924021    Uiso  ? O
   O4         1.0     0.750000     0.875000     0.424021    Uiso  ? O
   O4         1.0     0.750000     0.875000     0.924021    Uiso  ? O
